Version 4
SHEET 1 1204 680
WIRE 960 -224 368 -224
WIRE 960 -192 960 -224
WIRE 704 -160 512 -160
WIRE 704 -128 704 -160
WIRE 848 -128 704 -128
WIRE 368 -112 368 -224
WIRE 416 -112 368 -112
WIRE 512 -112 512 -160
WIRE 512 -112 496 -112
WIRE 592 -96 528 -96
WIRE 704 -96 704 -128
WIRE 704 -96 656 -96
WIRE 960 -96 960 -128
WIRE 256 -32 128 -32
WIRE 368 -32 368 -112
WIRE 368 -32 336 -32
WIRE 128 0 128 -32
WIRE 368 0 368 -32
WIRE 416 0 368 0
WIRE 720 0 496 0
WIRE 960 0 960 -32
WIRE 1088 0 960 0
WIRE 848 16 848 -128
WIRE 1008 16 848 16
WIRE 656 64 592 64
WIRE 1088 64 1088 0
WIRE 128 96 128 80
WIRE 368 112 368 0
WIRE 416 112 368 112
WIRE 528 112 528 -96
WIRE 528 112 496 112
WIRE 720 112 720 0
WIRE 848 112 720 112
WIRE 960 112 960 0
WIRE 960 112 912 112
WIRE 1008 112 1008 16
WIRE 1024 112 1008 112
WIRE 528 160 528 112
WIRE 656 160 528 160
WIRE 128 192 128 176
WIRE 128 320 128 272
WIRE 592 320 592 64
WIRE 592 320 128 320
WIRE 608 320 592 320
WIRE 1088 320 1088 160
WIRE 1088 320 608 320
WIRE 608 352 608 320
FLAG 608 352 0
SYMBOL voltage 128 -16 R0
WINDOW 123 0 0 Left 0
WINDOW 39 0 0 Left 0
SYMATTR InstName V1
SYMATTR Value 4.17
SYMBOL voltage 128 80 R0
WINDOW 123 0 0 Left 0
WINDOW 39 0 0 Left 0
SYMATTR InstName V2
SYMATTR Value 4.17
SYMBOL voltage 128 176 R0
WINDOW 123 0 0 Left 0
WINDOW 39 0 0 Left 0
SYMATTR InstName V3
SYMATTR Value 4.17
SYMBOL res 352 -48 R90
WINDOW 0 0 56 VBottom 2
WINDOW 3 32 56 VTop 2
SYMATTR InstName R1
SYMATTR Value 2.2k
SYMBOL res 512 96 R90
WINDOW 0 0 56 VBottom 2
WINDOW 3 32 56 VTop 2
SYMATTR InstName R2
SYMATTR Value 1k
SYMBOL res 512 -16 R90
WINDOW 0 0 56 VBottom 2
WINDOW 3 32 56 VTop 2
SYMATTR InstName R3
SYMATTR Value 11k
SYMBOL res 512 -128 R90
WINDOW 0 0 56 VBottom 2
WINDOW 3 32 56 VTop 2
SYMATTR InstName R4
SYMATTR Value 56k
SYMBOL npn 720 160 R180
SYMATTR InstName Q1
SYMATTR Value Q2N3053
SYMBOL npn 1024 64 R0
SYMATTR InstName Q2
SYMATTR Value Q2N3053
SYMBOL cap 912 96 R90
WINDOW 0 0 32 VBottom 2
WINDOW 3 32 32 VTop 2
SYMATTR InstName C1
SYMATTR Value 1µF
SYMATTR SpiceLine V=25v
SYMBOL cap 656 -112 R90
WINDOW 0 0 32 VBottom 2
WINDOW 3 32 32 VTop 2
SYMATTR InstName C2
SYMATTR Value 10µF
SYMATTR SpiceLine V=25v
SYMBOL LED 944 -192 R0
SYMATTR InstName D1
SYMBOL LED 944 -96 R0
SYMATTR InstName D2
TEXT 94 376 Left 2 !.tran 0 2s 100ms 5ms
